Version 4
SHEET 1 1116 680
WIRE 448 272 416 272
WIRE 480 272 448 272
WIRE 800 304 416 304
WIRE 960 304 800 304
WIRE 160 336 -16 336
WIRE 288 336 160 336
WIRE 720 336 416 336
WIRE -16 352 -16 336
WIRE 960 352 960 304
WIRE 672 368 416 368
WIRE 672 384 672 368
WIRE 800 384 672 384
WIRE 448 400 416 400
WIRE 720 400 720 336
WIRE 448 464 448 400
FLAG -16 432 0
FLAG 720 480 0
FLAG 960 432 0
FLAG 448 464 0
FLAG 160 336 in
FLAG 448 272 out
SYMBOL pulsels 352 336 R0
SYMATTR InstName X1
SYMBOL voltage 720 384 R0
WINDOW 123 0 0 Left 2
WINDOW 39 0 0 Left 2
SYMATTR InstName V1
SYMATTR Value {vddl}
SYMBOL voltage 800 288 R0
WINDOW 123 0 0 Left 2
WINDOW 39 0 0 Left 2
SYMATTR InstName V2
SYMATTR Value {vddl}
SYMBOL voltage 960 336 R0
WINDOW 123 0 0 Left 2
WINDOW 39 0 0 Left 2
SYMATTR InstName V3
SYMATTR Value {vddh}
SYMBOL voltage -16 336 R0
WINDOW 123 0 0 Left 2
WINDOW 39 24 124 Left 2
SYMATTR InstName V5
SYMATTR Value PULSE(0 {vddl} 0 0.5n 0.5n 0.05u 0.1u)
TEXT 232 40 Left 2 !.lib tsmc018typ.mod
TEXT -48 504 Left 2 !.tran 0.19u
TEXT 656 48 Left 2 !.param vddh 3.6\n.param vddl 0.8
TEXT 384 152 Left 2 !.step param vddh list 2 3 4
