Version 4
SHEET 1 880 680
WIRE 144 32 0 32
WIRE 320 32 224 32
WIRE 0 112 0 32
WIRE 320 112 320 32
WIRE 0 288 0 192
WIRE 320 288 320 176
WIRE 320 288 0 288
WIRE 320 320 320 288
FLAG 320 320 0
FLAG 0 32 source
FLAG 320 32 cap
SYMBOL voltage 0 96 R0
WINDOW 123 0 0 Left 0
WINDOW 39 0 0 Left 0
SYMATTR InstName V1
SYMATTR Value SINE(0 10 10e3)
SYMBOL res 240 16 R90
WINDOW 0 0 56 VBottom 2
WINDOW 3 32 56 VTop 2
SYMATTR InstName R1
SYMATTR Value 100
SYMBOL cap 304 112 R0
SYMATTR InstName C1
SYMATTR Value 1µ
TEXT -32 344 Left 2 !.tran 1m
