Version 4
SHEET 1 880 680
WIRE 16 32 -128 32
WIRE 160 32 96 32
WIRE 256 32 160 32
WIRE 400 32 320 32
WIRE 160 64 160 32
WIRE 256 64 256 32
WIRE -128 112 -128 32
WIRE 400 112 400 32
WIRE 256 144 256 128
WIRE 320 144 320 32
WIRE 320 144 256 144
WIRE 160 176 160 128
WIRE 320 176 160 176
WIRE 160 192 160 176
WIRE 256 192 256 144
WIRE -128 288 -128 192
WIRE 160 288 160 256
WIRE 160 288 -128 288
WIRE 256 288 256 256
WIRE 256 288 160 288
WIRE 320 288 320 176
WIRE 400 288 400 176
WIRE 400 288 320 288
WIRE 160 304 160 288
FLAG 160 304 0
FLAG -128 32 source
FLAG 400 32 cap
FLAG 400 288 PGND
SYMBOL voltage -128 96 R0
WINDOW 123 0 0 Left 0
WINDOW 39 0 0 Left 0
SYMATTR InstName V1
SYMATTR Value SINE(0 10 10e3)
SYMBOL res 112 16 R90
WINDOW 0 0 56 VBottom 2
WINDOW 3 32 56 VTop 2
SYMATTR InstName R1
SYMATTR Value 5
SYMBOL cap 384 112 R0
SYMATTR InstName C1
SYMATTR Value {Cdc}
SYMBOL diode 176 128 R180
WINDOW 0 24 64 Left 2
WINDOW 3 24 0 Left 2
SYMATTR InstName D1
SYMATTR Value RF05VA1S
SYMBOL diode 240 64 R0
SYMATTR InstName D2
SYMATTR Value RF05VA1S
SYMBOL diode 144 192 R0
WINDOW 3 -109 60 Left 2
SYMATTR InstName D3
SYMATTR Value RF05VA1S
SYMBOL diode 272 256 R180
WINDOW 0 24 64 Left 2
WINDOW 3 -109 3 Left 2
SYMATTR InstName D4
SYMATTR Value RF05VA1S
TEXT -128 312 Left 2 !.tran 1m
TEXT -128 336 Left 2 !.step param Cdc 10u 50u 10u
